REMARK  Name = 
REMARK  9 active torsions:
REMARK  status: ('A' for Active; 'I' for Inactive)
REMARK    1  A    between atoms: C_1  and  N_2
REMARK    2  A    between atoms: N_2  and  C_3
REMARK    3  A    between atoms: N_2  and  C_4
REMARK    4  A    between atoms: C_4  and  C_5
REMARK    5  A    between atoms: C_6  and  C_7
REMARK    6  A    between atoms: N_9  and  C_10
REMARK    7  A    between atoms: N_14  and  C_15
REMARK    8  A    between atoms: C_28  and  O_29
REMARK    9  A    between atoms: O_29  and  C_30
REMARK                            x       y       z     vdW  Elec       q    Type
REMARK                         _______ _______ _______ _____ _____    ______ ____
ROOT
ATOM      1  C   UNL     1       2.512  -0.169  -2.743  0.00  0.00    +0.000 A 
ATOM      2  C   UNL     1       2.472   0.682  -3.852  0.00  0.00    +0.000 A 
ATOM      3  C   UNL     1       1.262   0.923  -4.542  0.00  0.00    +0.000 A 
ATOM      4  C   UNL     1       1.107   1.678  -5.727  0.00  0.00    +0.000 A 
ATOM      5  N   UNL     1       2.192   2.400  -6.302  0.00  0.00    +0.000 N 
ATOM      6  N   UNL     1      -0.092   1.795  -6.329  0.00  0.00    +0.000 NA
ATOM      7  C   UNL     1      -1.125   1.165  -5.771  0.00  0.00    +0.000 A 
ATOM      8  N   UNL     1      -1.089   0.439  -4.651  0.00  0.00    +0.000 NA
ATOM      9  C   UNL     1       0.092   0.317  -4.047  0.00  0.00    +0.000 A 
ATOM     10  C   UNL     1       0.140  -0.465  -2.896  0.00  0.00    +0.000 A 
ATOM     11  C   UNL     1       1.334  -0.729  -2.232  0.00  0.00    +0.000 A 
ATOM     12  H   UNL     1       3.087   2.043  -5.983  0.00  0.00    +0.000 HD
ENDROOT
BRANCH   5  13
ATOM     13  C   UNL     1       2.311   2.663  -7.694  0.00  0.00    +0.000 A 
ATOM     14  C   UNL     1       1.867   1.742  -8.660  0.00  0.00    +0.000 A 
ATOM     15  C   UNL     1       2.062   1.974 -10.021  0.00  0.00    +0.000 A 
ATOM     16  C   UNL     1       2.734   3.116 -10.434  0.00  0.00    +0.000 A 
ATOM     17  F   UNL     1       2.918   3.318 -11.748  0.00  0.00    +0.000 F 
ATOM     18  C   UNL     1       3.217   4.027  -9.495  0.00  0.00    +0.000 A 
ATOM     19 CL   UNL     1       4.064   5.436 -10.009  0.00  0.00    +0.000 Cl
ATOM     20  C   UNL     1       3.023   3.796  -8.128  0.00  0.00    +0.000 A 
ENDBRANCH   5  13
BRANCH   1  23
ATOM     21  C   UNL     1       4.903  -0.910  -2.723  0.00  0.00    +0.000 C 
ATOM     22  O   UNL     1       5.923  -1.056  -2.053  0.00  0.00    +0.000 OA
ATOM     23  N   UNL     1       3.745  -0.467  -2.131  0.00  0.00    +0.000 N 
ATOM     24  H   UNL     1       3.740  -0.610  -1.127  0.00  0.00    +0.000 HD
BRANCH  21  26
ATOM     25  C   UNL     1       5.946  -1.772  -4.791  0.00  0.00    +0.000 C 
ATOM     26  C   UNL     1       4.860  -1.302  -4.157  0.00  0.00    +0.000 C 
BRANCH  25  27
ATOM     27  C   UNL     1       5.964  -2.069  -6.264  0.00  0.00    +0.000 C 
BRANCH  27  29
ATOM     28  C   UNL     1       6.813   0.101  -6.925  0.00  0.00    +0.000 C 
ATOM     29  N   UNL     1       5.704  -0.854  -7.060  0.00  0.00    +0.000 NA
ATOM     30  C   UNL     1       5.532  -1.209  -8.471  0.00  0.00    +0.000 C 
ENDBRANCH  27  29
ENDBRANCH  25  27
ENDBRANCH  21  26
ENDBRANCH   1  23
BRANCH  11  31
ATOM     31  O   UNL     1       1.457  -1.548  -1.137  0.00  0.00    +0.000 OA
BRANCH  31  32
ATOM     32  C   UNL     1       0.461  -2.556  -0.900  0.00  0.00    +0.000 C 
ATOM     33  C   UNL     1       0.435  -3.640  -1.961  0.00  0.00    +0.000 C 
ATOM     34  C   UNL     1       0.244  -4.939  -1.209  0.00  0.00    +0.000 C 
ATOM     35  O   UNL     1       0.495  -4.705   0.175  0.00  0.00    +0.000 OA
ATOM     36  C   UNL     1       0.827  -3.328   0.365  0.00  0.00    +0.000 C 
ENDBRANCH  31  32
ENDBRANCH  11  31
TORSDOF 7
