REMARK  Name = 
REMARK  5 active torsions:
REMARK  status: ('A' for Active; 'I' for Inactive)
REMARK    1  A    between atoms: C_1  and  C_2
REMARK    2  A    between atoms: C_2  and  O_4
REMARK    3  A    between atoms: O_4  and  C_5
REMARK    4  A    between atoms: C_10  and  C_11
REMARK    5  A    between atoms: C_11  and  O_13
REMARK                            x       y       z     vdW  Elec       q    Type
REMARK                         _______ _______ _______ _____ _____    ______ ____
ROOT
ATOM      1  C   UNL     1       0.353  -3.279   1.937  0.00  0.00    +0.000 A 
ATOM      2  C   UNL     1      -0.990  -3.226   2.335  0.00  0.00    +0.000 A 
ATOM      3  C   UNL     1      -1.538  -4.255   3.096  0.00  0.00    +0.000 A 
ATOM      4  C   UNL     1      -0.743  -5.324   3.498  0.00  0.00    +0.000 A 
ATOM      5  C   UNL     1       0.611  -5.350   3.161  0.00  0.00    +0.000 A 
ATOM      6  C   UNL     1       1.180  -4.323   2.387  0.00  0.00    +0.000 A 
ENDROOT
BRANCH   6   7
ATOM      7  C   UNL     1       2.635  -4.351   2.078  0.00  0.00    +0.000 C 
ATOM      8  O   UNL     1       3.280  -3.504   1.487  0.00  0.00    +0.000 OA
BRANCH   7   9
ATOM      9  O   UNL     1       3.240  -5.458   2.552  0.00  0.00    +0.000 OA
ATOM     10  H   UNL     1       4.182  -5.342   2.310  0.00  0.00    +0.000 HD
ENDBRANCH   7   9
ENDBRANCH   6   7
BRANCH   1  11
ATOM     11  O   UNL     1       0.891  -2.262   1.117  0.00  0.00    +0.000 OA
BRANCH  11  13
ATOM     12  C   UNL     1       0.944  -0.762  -0.716  0.00  0.00    +0.000 C 
ATOM     13  C   UNL     1       0.145  -1.781   0.038  0.00  0.00    +0.000 C 
ATOM     14  O   UNL     1      -0.988  -2.119  -0.281  0.00  0.00    +0.000 OA
ENDBRANCH  11  13
ENDBRANCH   1  11
TORSDOF 4
