REMARK  Name = 
REMARK  3 active torsions:
REMARK  status: ('A' for Active; 'I' for Inactive)
REMARK    1  A    between atoms: C_1  and  N_2
REMARK    2  A    between atoms: N_9  and  C_14
REMARK    3  A    between atoms: N_12  and  C_13
REMARK                            x       y       z     vdW  Elec       q    Type
REMARK                         _______ _______ _______ _____ _____    ______ ____
ROOT
ATOM      1  C   UNL     1      -3.254  -1.144   0.030  0.00  0.00    +0.000 C 
ATOM      2  N   UNL     1      -2.278  -0.085   0.006  0.00  0.00    +0.000 N 
ATOM      3  C   UNL     1      -2.542   1.259  -0.006  0.00  0.00    +0.000 A 
ATOM      4  N   UNL     1      -1.433   1.971  -0.009  0.00  0.00    +0.000 NA
ATOM      5  C   UNL     1      -0.433   1.047  -0.002  0.00  0.00    +0.000 A 
ATOM      6  C   UNL     1      -0.920  -0.226   0.003  0.00  0.00    +0.000 A 
ATOM      7  C   UNL     1      -0.090  -1.380   0.009  0.00  0.00    +0.000 A 
ATOM      8  O   UNL     1      -0.541  -2.521   0.012  0.00  0.00    +0.000 OA
ATOM      9  N   UNL     1       1.272  -1.068   0.012  0.00  0.00    +0.000 N 
ATOM     10  C   UNL     1       1.815   0.233   0.011  0.00  0.00    +0.000 A 
ATOM     11  O   UNL     1       3.037   0.417   0.015  0.00  0.00    +0.000 OA
ATOM     12  N   UNL     1       0.916   1.301   0.006  0.00  0.00    +0.000 N 
ATOM     13  C   UNL     1       1.440   2.652   0.010  0.00  0.00    +0.000 C 
ATOM     14  C   UNL     1       2.225  -2.161   0.022  0.00  0.00    +0.000 C 
ENDROOT
TORSDOF 0
