REMARK  Name = CHEMBL4650319
REMARK  19 active torsions:
REMARK  status: ('A' for Active; 'I' for Inactive)
REMARK    1  A    between atoms: C_2  and  C_3
REMARK    2  A    between atoms: N_5  and  C_6
REMARK    3  A    between atoms: C_8  and  N_9
REMARK    4  A    between atoms: C_13  and  C_14
REMARK    5  A    between atoms: C_14  and  O_16
REMARK    6  A    between atoms: O_16  and  C_17
REMARK    7  A    between atoms: C_17  and  C_18
REMARK    8  A    between atoms: C_17  and  C_19
REMARK    9  A    between atoms: C_20  and  C_21
REMARK   10  A    between atoms: N_23  and  C_24
REMARK   11  A    between atoms: C_32  and  O_33
REMARK   12  A    between atoms: O_33  and  C_34
REMARK   13  A    between atoms: C_36  and  N_37
REMARK   14  A    between atoms: N_37  and  C_38
REMARK   15  A    between atoms: N_37  and  C_39
REMARK   16  A    between atoms: C_39  and  C_40
REMARK   17  A    between atoms: C_40  and  N_41
REMARK   18  A    between atoms: N_41  and  C_42
REMARK   19  A    between atoms: N_41  and  C_43
REMARK                            x       y       z     vdW  Elec       q    Type
REMARK                         _______ _______ _______ _____ _____    ______ ____
ROOT
ATOM      1  N   UNL     1       5.402  -1.785  -5.658  0.00  0.00    +0.000 N 
ATOM      2  C   UNL     1       4.948  -0.535  -6.103  0.00  0.00    +0.000 A 
ATOM      3  N   UNL     1       5.245   0.576  -5.418  0.00  0.00    +0.000 NA
ATOM      4  C   UNL     1       4.686   1.738  -5.820  0.00  0.00    +0.000 A 
ATOM      5  C   UNL     1       3.864   1.858  -6.919  0.00  0.00    +0.000 A 
ATOM      6  C   UNL     1       3.720   0.702  -7.631  0.00  0.00    +0.000 A 
ATOM      7  N   UNL     1       4.207  -0.509  -7.214  0.00  0.00    +0.000 NA
ATOM      8  H   UNL     1       4.832  -2.490  -6.110  0.00  0.00    +0.000 HD
ENDROOT
BRANCH   6   9
ATOM      9  C   UNL     1       3.314   0.649  -9.038  0.00  0.00    +0.000 A 
ATOM     10  C   UNL     1       2.500  -0.375  -9.484  0.00  0.00    +0.000 A 
ATOM     11  N   UNL     1       3.062  -0.836 -10.647  0.00  0.00    +0.000 N 
ATOM     12  C   UNL     1       2.832  -2.170 -11.152  0.00  0.00    +0.000 C 
ATOM     13  C   UNL     1       4.070   0.009 -11.068  0.00  0.00    +0.000 A 
ATOM     14  C   UNL     1       4.997  -0.108 -12.115  0.00  0.00    +0.000 A 
ATOM     15  C   UNL     1       5.956   0.899 -12.262  0.00  0.00    +0.000 A 
ATOM     16  C   UNL     1       5.971   2.003 -11.417  0.00  0.00    +0.000 A 
ATOM     17  C   UNL     1       5.079   2.085 -10.343  0.00  0.00    +0.000 A 
ATOM     18  C   UNL     1       4.135   1.054 -10.142  0.00  0.00    +0.000 A 
ENDBRANCH   6   9
BRANCH   1  21
ATOM     19  C   UNL     1       5.291  -1.663  -1.941  0.00  0.00    +0.000 A 
ATOM     20  C   UNL     1       4.941  -1.536  -3.291  0.00  0.00    +0.000 A 
ATOM     21  C   UNL     1       5.728  -2.091  -4.317  0.00  0.00    +0.000 A 
ATOM     22  C   UNL     1       6.774  -2.943  -3.940  0.00  0.00    +0.000 A 
ATOM     23  C   UNL     1       7.100  -3.086  -2.568  0.00  0.00    +0.000 A 
ATOM     24  C   UNL     1       6.401  -2.435  -1.536  0.00  0.00    +0.000 A 
BRANCH  19  27
ATOM     25  C   UNL     1       4.859   0.429  -0.747  0.00  0.00    +0.000 C 
ATOM     26  O   UNL     1       4.021   1.145  -0.202  0.00  0.00    +0.000 OA
ATOM     27  N   UNL     1       4.571  -0.884  -1.018  0.00  0.00    +0.000 N 
ATOM     28  H   UNL     1       3.567  -1.025  -0.985  0.00  0.00    +0.000 HD
BRANCH  25  30
ATOM     29  C   UNL     1       6.349   2.280  -1.375  0.00  0.00    +0.000 C 
ATOM     30  C   UNL     1       6.173   0.964  -1.200  0.00  0.00    +0.000 C 
ENDBRANCH  25  30
ENDBRANCH  19  27
BRANCH  22  31
ATOM     31  O   UNL     1       7.620  -3.676  -4.738  0.00  0.00    +0.000 OA
ATOM     32  C   UNL     1       7.486  -3.632  -6.148  0.00  0.00    +0.000 C 
ENDBRANCH  22  31
BRANCH  24  33
ATOM     33  N   UNL     1       6.787  -2.510  -0.175  0.00  0.00    +0.000 N 
ATOM     34  C   UNL     1       8.174  -2.857   0.119  0.00  0.00    +0.000 C 
BRANCH  33  35
ATOM     35  C   UNL     1       5.735  -3.089   0.709  0.00  0.00    +0.000 C 
BRANCH  35  36
ATOM     36  C   UNL     1       6.165  -3.322   2.182  0.00  0.00    +0.000 C 
BRANCH  36  37
ATOM     37  N   UNL     1       5.079  -3.803   3.070  0.00  0.00    +0.000 NA
ATOM     38  C   UNL     1       4.537  -5.091   2.635  0.00  0.00    +0.000 C 
ATOM     39  C   UNL     1       5.561  -3.910   4.449  0.00  0.00    +0.000 C 
ENDBRANCH  36  37
ENDBRANCH  35  36
ENDBRANCH  33  35
ENDBRANCH  24  33
ENDBRANCH   1  21
BRANCH   5  40
ATOM     40  C   UNL     1       3.214   3.147  -7.177  0.00  0.00    +0.000 C 
ATOM     41  O   UNL     1       3.594   4.184  -6.655  0.00  0.00    +0.000 OA
BRANCH  40  42
ATOM     42  O   UNL     1       2.099   2.982  -7.909  0.00  0.00    +0.000 OA
BRANCH  42  43
ATOM     43  C   UNL     1       1.208   4.112  -8.024  0.00  0.00    +0.000 C 
ATOM     44  C   UNL     1       1.826   5.227  -8.860  0.00  0.00    +0.000 C 
ATOM     45  C   UNL     1      -0.065   3.606  -8.694  0.00  0.00    +0.000 C 
ENDBRANCH  42  43
ENDBRANCH  40  42
ENDBRANCH   5  40
TORSDOF 12
