REMARK  Name = CHEMBL553
REMARK  13 active torsions:
REMARK  status: ('A' for Active; 'I' for Inactive)
REMARK    1  A    between atoms: C_2  and  C_3
REMARK    2  A    between atoms: C_7  and  N_8
REMARK    3  A    between atoms: N_8  and  C_9
REMARK    4  A    between atoms: C_15  and  O_16
REMARK    5  A    between atoms: O_16  and  C_17
REMARK    6  A    between atoms: C_17  and  C_18
REMARK    7  A    between atoms: C_18  and  O_19
REMARK    8  A    between atoms: O_19  and  C_20
REMARK    9  A    between atoms: C_21  and  O_22
REMARK   10  A    between atoms: O_22  and  C_23
REMARK   11  A    between atoms: C_23  and  C_24
REMARK   12  A    between atoms: C_24  and  O_25
REMARK   13  A    between atoms: O_25  and  C_26
REMARK                            x       y       z     vdW  Elec       q    Type
REMARK                         _______ _______ _______ _____ _____    ______ ____
ROOT
ATOM      1  C   UNL     1       3.683   2.587  -0.081  0.00  0.00    +0.000 A 
ATOM      2  N   UNL     1       4.274   3.207   0.958  0.00  0.00    +0.000 NA
ATOM      3  C   UNL     1       5.606   3.183   1.004  0.00  0.00    +0.000 A 
ATOM      4  N   UNL     1       6.411   2.591   0.118  0.00  0.00    +0.000 NA
ATOM      5  C   UNL     1       5.822   1.965  -0.908  0.00  0.00    +0.000 A 
ATOM      6  C   UNL     1       6.621   1.343  -1.862  0.00  0.00    +0.000 A 
ATOM      7  C   UNL     1       6.122   0.690  -3.010  0.00  0.00    +0.000 A 
ATOM      8  C   UNL     1       4.734   0.612  -3.166  0.00  0.00    +0.000 A 
ATOM      9  C   UNL     1       3.919   1.240  -2.204  0.00  0.00    +0.000 A 
ATOM     10  C   UNL     1       4.438   1.920  -1.073  0.00  0.00    +0.000 A 
ENDROOT
BRANCH   1  11
ATOM     11  N   UNL     1       2.259   2.520  -0.096  0.00  0.00    +0.000 N 
ATOM     12  H   UNL     1       1.927   2.518  -1.055  0.00  0.00    +0.000 HD
BRANCH  11  17
ATOM     13  C   UNL     1      -0.678   3.792   1.797  0.00  0.00    +0.000 A 
ATOM     14  C   UNL     1      -0.378   5.151   1.906  0.00  0.00    +0.000 A 
ATOM     15  C   UNL     1       0.795   5.647   1.341  0.00  0.00    +0.000 A 
ATOM     16  C   UNL     1       1.675   4.785   0.694  0.00  0.00    +0.000 A 
ATOM     17  C   UNL     1       1.415   3.408   0.628  0.00  0.00    +0.000 A 
ATOM     18  C   UNL     1       0.207   2.927   1.146  0.00  0.00    +0.000 A 
BRANCH  13  20
ATOM     19  C   UNL     1      -2.924   2.880   2.820  0.00  0.00    +0.000 C 
ATOM     20  C   UNL     1      -1.899   3.289   2.350  0.00  0.00    +0.000 C 
ENDBRANCH  13  20
ENDBRANCH  11  17
ENDBRANCH   1  11
BRANCH   7  21
ATOM     21  O   UNL     1       7.154   0.258  -3.810  0.00  0.00    +0.000 OA
BRANCH  21  22
ATOM     22  C   UNL     1       6.905   0.123  -5.197  0.00  0.00    +0.000 C 
BRANCH  22  23
ATOM     23  C   UNL     1       8.141   0.248  -6.081  0.00  0.00    +0.000 C 
BRANCH  23  24
ATOM     24  O   UNL     1       7.644   0.013  -7.404  0.00  0.00    +0.000 OA
ATOM     25  C   UNL     1       8.626   0.062  -8.418  0.00  0.00    +0.000 C 
ENDBRANCH  23  24
ENDBRANCH  22  23
ENDBRANCH  21  22
ENDBRANCH   7  21
BRANCH   8  26
ATOM     26  O   UNL     1       3.962   0.096  -4.166  0.00  0.00    +0.000 OA
BRANCH  26  27
ATOM     27  C   UNL     1       4.269  -1.170  -4.739  0.00  0.00    +0.000 C 
BRANCH  27  28
ATOM     28  C   UNL     1       3.136  -2.186  -4.613  0.00  0.00    +0.000 C 
BRANCH  28  29
ATOM     29  O   UNL     1       1.926  -1.710  -5.201  0.00  0.00    +0.000 OA
ATOM     30  C   UNL     1       0.924  -2.721  -5.192  0.00  0.00    +0.000 C 
ENDBRANCH  28  29
ENDBRANCH  27  28
ENDBRANCH  26  27
ENDBRANCH   8  26
TORSDOF 11
