REMARK  Name = CHEMBL939
REMARK  8 active torsions:
REMARK  status: ('A' for Active; 'I' for Inactive)
REMARK    1  A    between atoms: C_1  and  O_2
REMARK    2  A    between atoms: O_2  and  C_3
REMARK    3  A    between atoms: N_10  and  C_11
REMARK    4  A    between atoms: C_21  and  O_22
REMARK    5  A    between atoms: O_22  and  C_23
REMARK    6  A    between atoms: C_23  and  C_24
REMARK    7  A    between atoms: C_24  and  C_25
REMARK    8  A    between atoms: C_25  and  N_26
REMARK                            x       y       z     vdW  Elec       q    Type
REMARK                         _______ _______ _______ _____ _____    ______ ____
ROOT
ATOM      1  C   UNL     1       3.053   0.973   0.338  0.00  0.00    +0.000 A 
ATOM      2  C   UNL     1       4.130   1.597  -0.302  0.00  0.00    +0.000 A 
ATOM      3  C   UNL     1       4.749   2.721   0.207  0.00  0.00    +0.000 A 
ATOM      4  N   UNL     1       5.759   3.240  -0.498  0.00  0.00    +0.000 NA
ATOM      5  C   UNL     1       6.363   4.305   0.031  0.00  0.00    +0.000 A 
ATOM      6  N   UNL     1       6.075   4.863   1.202  0.00  0.00    +0.000 NA
ATOM      7  C   UNL     1       5.067   4.326   1.912  0.00  0.00    +0.000 A 
ATOM      8  N   UNL     1       4.773   4.850   3.188  0.00  0.00    +0.000 N 
ATOM      9  C   UNL     1       4.315   3.237   1.423  0.00  0.00    +0.000 A 
ATOM     10  C   UNL     1       3.209   2.642   2.077  0.00  0.00    +0.000 A 
ATOM     11  C   UNL     1       2.628   1.475   1.572  0.00  0.00    +0.000 A 
ATOM     12  H   UNL     1       4.811   4.128   3.899  0.00  0.00    +0.000 HD
ENDROOT
BRANCH   8  13
ATOM     13  C   UNL     1       4.991   6.153   3.680  0.00  0.00    +0.000 A 
ATOM     14  C   UNL     1       4.731   6.421   5.033  0.00  0.00    +0.000 A 
ATOM     15  C   UNL     1       4.657   7.735   5.501  0.00  0.00    +0.000 A 
ATOM     16  C   UNL     1       4.847   8.792   4.618  0.00  0.00    +0.000 A 
ATOM     17  F   UNL     1       4.685  10.047   5.065  0.00  0.00    +0.000 F 
ATOM     18  C   UNL     1       5.165   8.549   3.288  0.00  0.00    +0.000 A 
ATOM     19 CL   UNL     1       5.393   9.847   2.179  0.00  0.00    +0.000 Cl
ATOM     20  C   UNL     1       5.240   7.238   2.825  0.00  0.00    +0.000 A 
ENDBRANCH   8  13
BRANCH   1  22
ATOM     21  C   UNL     1       2.509  -0.347  -1.587  0.00  0.00    +0.000 C 
ATOM     22  O   UNL     1       2.427  -0.127  -0.179  0.00  0.00    +0.000 OA
ENDBRANCH   1  22
BRANCH  11  23
ATOM     23  O   UNL     1       1.676   0.936   2.398  0.00  0.00    +0.000 OA
BRANCH  23  24
ATOM     24  C   UNL     1       1.718  -0.482   2.618  0.00  0.00    +0.000 C 
BRANCH  24  25
ATOM     25  C   UNL     1       3.088  -1.040   3.035  0.00  0.00    +0.000 C 
BRANCH  25  26
ATOM     26  C   UNL     1       3.561  -0.413   4.351  0.00  0.00    +0.000 C 
BRANCH  26  27
ATOM     27  N   UNL     1       4.885  -0.869   4.815  0.00  0.00    +0.000 NA
ATOM     28  C   UNL     1       5.221  -0.223   6.110  0.00  0.00    +0.000 C 
ATOM     29  C   UNL     1       5.560   1.276   5.986  0.00  0.00    +0.000 C 
ATOM     30  O   UNL     1       6.609   1.513   5.039  0.00  0.00    +0.000 OA
ATOM     31  C   UNL     1       6.302   0.936   3.764  0.00  0.00    +0.000 C 
ATOM     32  C   UNL     1       5.989  -0.564   3.877  0.00  0.00    +0.000 C 
ENDBRANCH  26  27
ENDBRANCH  25  26
ENDBRANCH  24  25
ENDBRANCH  23  24
ENDBRANCH  11  23
TORSDOF 7
