REMARK  Name = CHEMBL1173655
REMARK  9 active torsions:
REMARK  status: ('A' for Active; 'I' for Inactive)
REMARK    1  A    between atoms: C_1  and  N_2
REMARK    2  A    between atoms: N_2  and  C_3
REMARK    3  A    between atoms: N_2  and  C_4
REMARK    4  A    between atoms: C_4  and  C_5
REMARK    5  A    between atoms: C_6  and  C_7
REMARK    6  A    between atoms: N_9  and  C_10
REMARK    7  A    between atoms: N_14  and  C_15
REMARK    8  A    between atoms: C_28  and  O_29
REMARK    9  A    between atoms: O_29  and  C_30
REMARK                            x       y       z     vdW  Elec       q    Type
REMARK                         _______ _______ _______ _____ _____    ______ ____
ROOT
ATOM      1  C   UNL     1       7.217   3.163  -3.291  0.00  0.00    +0.000 A 
ATOM      2  C   UNL     1       7.623   4.018  -4.310  0.00  0.00    +0.000 A 
ATOM      3  C   UNL     1       8.297   5.214  -3.988  0.00  0.00    +0.000 A 
ATOM      4  C   UNL     1       8.634   6.211  -4.915  0.00  0.00    +0.000 A 
ATOM      5  N   UNL     1       8.229   6.079  -6.273  0.00  0.00    +0.000 N 
ATOM      6  N   UNL     1       9.299   7.322  -4.551  0.00  0.00    +0.000 NA
ATOM      7  C   UNL     1       9.610   7.448  -3.260  0.00  0.00    +0.000 A 
ATOM      8  N   UNL     1       9.318   6.575  -2.292  0.00  0.00    +0.000 NA
ATOM      9  C   UNL     1       8.658   5.474  -2.656  0.00  0.00    +0.000 A 
ATOM     10  C   UNL     1       8.297   4.567  -1.664  0.00  0.00    +0.000 A 
ATOM     11  C   UNL     1       7.542   3.433  -1.955  0.00  0.00    +0.000 A 
ATOM     12  H   UNL     1       7.217   6.002  -6.311  0.00  0.00    +0.000 HD
ENDROOT
BRANCH   5  13
ATOM     13  C   UNL     1       8.750   6.875  -7.322  0.00  0.00    +0.000 A 
ATOM     14  C   UNL     1      10.138   7.046  -7.453  0.00  0.00    +0.000 A 
ATOM     15  C   UNL     1      10.670   7.883  -8.432  0.00  0.00    +0.000 A 
ATOM     16  C   UNL     1       9.812   8.548  -9.297  0.00  0.00    +0.000 A 
ATOM     17  F   UNL     1      10.337   9.373 -10.214  0.00  0.00    +0.000 F 
ATOM     18  C   UNL     1       8.433   8.364  -9.207  0.00  0.00    +0.000 A 
ATOM     19 CL   UNL     1       7.371   9.190 -10.283  0.00  0.00    +0.000 Cl
ATOM     20  C   UNL     1       7.900   7.519  -8.228  0.00  0.00    +0.000 A 
ENDBRANCH   5  13
BRANCH   1  23
ATOM     21  C   UNL     1       4.963   2.223  -3.528  0.00  0.00    +0.000 C 
ATOM     22  O   UNL     1       4.239   1.293  -3.874  0.00  0.00    +0.000 OA
ATOM     23  N   UNL     1       6.331   2.125  -3.611  0.00  0.00    +0.000 N 
ATOM     24  H   UNL     1       6.652   1.363  -4.193  0.00  0.00    +0.000 HD
BRANCH  21  26
ATOM     25  C   UNL     1       3.165   3.645  -2.594  0.00  0.00    +0.000 C 
ATOM     26  C   UNL     1       4.397   3.533  -3.109  0.00  0.00    +0.000 C 
BRANCH  25  27
ATOM     27  C   UNL     1       2.482   4.952  -2.288  0.00  0.00    +0.000 C 
BRANCH  27  29
ATOM     28  C   UNL     1       2.480   5.879  -4.534  0.00  0.00    +0.000 C 
ATOM     29  N   UNL     1       2.897   6.083  -3.140  0.00  0.00    +0.000 NA
ATOM     30  C   UNL     1       2.293   7.325  -2.644  0.00  0.00    +0.000 C 
ENDBRANCH  27  29
ENDBRANCH  25  27
ENDBRANCH  21  26
ENDBRANCH   1  23
BRANCH  11  31
ATOM     31  O   UNL     1       7.108   2.519  -1.035  0.00  0.00    +0.000 OA
BRANCH  31  32
ATOM     32  C   UNL     1       6.950   2.921   0.318  0.00  0.00    +0.000 C 
ATOM     33  C   UNL     1       5.841   3.927   0.542  0.00  0.00    +0.000 C 
ATOM     34  C   UNL     1       5.469   3.681   1.986  0.00  0.00    +0.000 C 
ATOM     35  O   UNL     1       5.707   2.292   2.250  0.00  0.00    +0.000 OA
ATOM     36  C   UNL     1       6.418   1.744   1.130  0.00  0.00    +0.000 C 
ENDBRANCH  31  32
ENDBRANCH  11  31
TORSDOF 7
