REMARK  Name = 
REMARK  13 active torsions:
REMARK  status: ('A' for Active; 'I' for Inactive)
REMARK    1  A    between atoms: C_2  and  C_3
REMARK    2  A    between atoms: C_7  and  N_8
REMARK    3  A    between atoms: N_8  and  C_9
REMARK    4  A    between atoms: C_15  and  O_16
REMARK    5  A    between atoms: O_16  and  C_17
REMARK    6  A    between atoms: C_17  and  C_18
REMARK    7  A    between atoms: C_18  and  O_19
REMARK    8  A    between atoms: O_19  and  C_20
REMARK    9  A    between atoms: C_21  and  O_22
REMARK   10  A    between atoms: O_22  and  C_23
REMARK   11  A    between atoms: C_23  and  C_24
REMARK   12  A    between atoms: C_24  and  O_25
REMARK   13  A    between atoms: O_25  and  C_26
REMARK                            x       y       z     vdW  Elec       q    Type
REMARK                         _______ _______ _______ _____ _____    ______ ____
ROOT
ATOM      1  C   UNL     1       1.577   3.795  -0.064  0.00  0.00    +0.000 A 
ATOM      2  N   UNL     1       1.752   4.610  -1.118  0.00  0.00    +0.000 NA
ATOM      3  C   UNL     1       1.006   5.716  -1.154  0.00  0.00    +0.000 A 
ATOM      4  N   UNL     1       0.066   6.056  -0.266  0.00  0.00    +0.000 NA
ATOM      5  C   UNL     1      -0.107   5.232   0.772  0.00  0.00    +0.000 A 
ATOM      6  C   UNL     1      -1.153   5.477   1.649  0.00  0.00    +0.000 A 
ATOM      7  C   UNL     1      -1.468   4.632   2.736  0.00  0.00    +0.000 A 
ATOM      8  C   UNL     1      -0.557   3.622   3.055  0.00  0.00    +0.000 A 
ATOM      9  C   UNL     1       0.481   3.346   2.148  0.00  0.00    +0.000 A 
ATOM     10  C   UNL     1       0.680   4.102   0.974  0.00  0.00    +0.000 A 
ENDROOT
BRANCH   1  11
ATOM     11  N   UNL     1       2.278   2.564  -0.048  0.00  0.00    +0.000 N 
ATOM     12  H   UNL     1       2.952   2.544   0.707  0.00  0.00    +0.000 HD
BRANCH  11  17
ATOM     13  C   UNL     1       2.195   1.004  -3.449  0.00  0.00    +0.000 A 
ATOM     14  C   UNL     1       3.320   0.183  -3.384  0.00  0.00    +0.000 A 
ATOM     15  C   UNL     1       4.090   0.147  -2.222  0.00  0.00    +0.000 A 
ATOM     16  C   UNL     1       3.747   0.944  -1.128  0.00  0.00    +0.000 A 
ATOM     17  C   UNL     1       2.644   1.803  -1.181  0.00  0.00    +0.000 A 
ATOM     18  C   UNL     1       1.863   1.804  -2.350  0.00  0.00    +0.000 A 
BRANCH  13  20
ATOM     19  C   UNL     1       0.645   0.984  -5.580  0.00  0.00    +0.000 C 
ATOM     20  C   UNL     1       1.364   0.997  -4.617  0.00  0.00    +0.000 C 
ENDBRANCH  13  20
ENDBRANCH  11  17
ENDBRANCH   1  11
BRANCH   7  21
ATOM     21  O   UNL     1      -2.653   4.781   3.430  0.00  0.00    +0.000 OA
BRANCH  21  22
ATOM     22  C   UNL     1      -3.713   5.400   2.663  0.00  0.00    +0.000 C 
BRANCH  22  23
ATOM     23  C   UNL     1      -5.100   5.137   3.252  0.00  0.00    +0.000 C 
BRANCH  23  24
ATOM     24  O   UNL     1      -6.078   5.805   2.444  0.00  0.00    +0.000 OA
ATOM     25  C   UNL     1      -7.409   5.534   2.868  0.00  0.00    +0.000 C 
ENDBRANCH  23  24
ENDBRANCH  22  23
ENDBRANCH  21  22
ENDBRANCH   7  21
BRANCH   8  26
ATOM     26  O   UNL     1      -0.457   2.792   4.127  0.00  0.00    +0.000 OA
BRANCH  26  27
ATOM     27  C   UNL     1      -1.439   2.685   5.143  0.00  0.00    +0.000 C 
BRANCH  27  28
ATOM     28  C   UNL     1      -2.524   1.713   4.706  0.00  0.00    +0.000 C 
BRANCH  28  29
ATOM     29  O   UNL     1      -3.303   1.301   5.827  0.00  0.00    +0.000 OA
ATOM     30  C   UNL     1      -4.377   0.464   5.416  0.00  0.00    +0.000 C 
ENDBRANCH  28  29
ENDBRANCH  27  28
ENDBRANCH  26  27
ENDBRANCH   8  26
TORSDOF 11
