REMARK  Name = 
REMARK  8 active torsions:
REMARK  status: ('A' for Active; 'I' for Inactive)
REMARK    1  A    between atoms: C_1  and  O_2
REMARK    2  A    between atoms: O_2  and  C_3
REMARK    3  A    between atoms: N_10  and  C_11
REMARK    4  A    between atoms: C_21  and  O_22
REMARK    5  A    between atoms: O_22  and  C_23
REMARK    6  A    between atoms: C_23  and  C_24
REMARK    7  A    between atoms: C_24  and  C_25
REMARK    8  A    between atoms: C_25  and  N_26
REMARK                            x       y       z     vdW  Elec       q    Type
REMARK                         _______ _______ _______ _____ _____    ______ ____
ROOT
ATOM      1  C   UNL     1       1.850   0.920  -2.334  0.00  0.00    +0.000 A 
ATOM      2  C   UNL     1       0.736   1.093  -3.185  0.00  0.00    +0.000 A 
ATOM      3  C   UNL     1       0.682   2.095  -4.171  0.00  0.00    +0.000 A 
ATOM      4  N   UNL     1      -0.398   2.267  -4.957  0.00  0.00    +0.000 NA
ATOM      5  C   UNL     1      -0.330   3.240  -5.888  0.00  0.00    +0.000 A 
ATOM      6  N   UNL     1       0.726   4.019  -6.159  0.00  0.00    +0.000 NA
ATOM      7  C   UNL     1       1.807   3.825  -5.393  0.00  0.00    +0.000 A 
ATOM      8  N   UNL     1       3.047   4.433  -5.732  0.00  0.00    +0.000 N 
ATOM      9  C   UNL     1       1.796   2.926  -4.322  0.00  0.00    +0.000 A 
ATOM     10  C   UNL     1       2.867   2.811  -3.426  0.00  0.00    +0.000 A 
ATOM     11  C   UNL     1       2.929   1.805  -2.467  0.00  0.00    +0.000 A 
ATOM     12  H   UNL     1       3.695   3.711  -6.039  0.00  0.00    +0.000 HD
ENDROOT
BRANCH   8  13
ATOM     13  C   UNL     1       3.296   5.687  -6.319  0.00  0.00    +0.000 A 
ATOM     14  C   UNL     1       2.433   6.773  -6.121  0.00  0.00    +0.000 A 
ATOM     15  C   UNL     1       2.757   8.043  -6.605  0.00  0.00    +0.000 A 
ATOM     16  C   UNL     1       3.951   8.236  -7.288  0.00  0.00    +0.000 A 
ATOM     17  F   UNL     1       4.246   9.464  -7.739  0.00  0.00    +0.000 F 
ATOM     18  C   UNL     1       4.830   7.176  -7.483  0.00  0.00    +0.000 A 
ATOM     19 CL   UNL     1       6.320   7.410  -8.315  0.00  0.00    +0.000 Cl
ATOM     20  C   UNL     1       4.513   5.909  -6.986  0.00  0.00    +0.000 A 
ENDBRANCH   8  13
BRANCH   1  22
ATOM     21  C   UNL     1       0.988  -1.014  -1.100  0.00  0.00    +0.000 C 
ATOM     22  O   UNL     1       1.965  -0.024  -1.363  0.00  0.00    +0.000 OA
ENDBRANCH   1  22
BRANCH  11  23
ATOM     23  O   UNL     1       4.117   1.880  -1.796  0.00  0.00    +0.000 OA
BRANCH  23  24
ATOM     24  C   UNL     1       4.577   0.818  -0.976  0.00  0.00    +0.000 C 
BRANCH  24  25
ATOM     25  C   UNL     1       5.053  -0.422  -1.746  0.00  0.00    +0.000 C 
BRANCH  25  26
ATOM     26  C   UNL     1       6.431  -0.380  -2.461  0.00  0.00    +0.000 C 
BRANCH  26  27
ATOM     27  N   UNL     1       6.391   0.378  -3.697  0.00  0.00    +0.000 NA
ATOM     28  C   UNL     1       7.006   1.706  -3.669  0.00  0.00    +0.000 C 
ATOM     29  C   UNL     1       6.271   2.487  -4.757  0.00  0.00    +0.000 C 
ATOM     30  O   UNL     1       6.544   1.945  -6.060  0.00  0.00    +0.000 OA
ATOM     31  C   UNL     1       6.231   0.537  -6.122  0.00  0.00    +0.000 C 
ATOM     32  C   UNL     1       6.824  -0.273  -4.943  0.00  0.00    +0.000 C 
ENDBRANCH  26  27
ENDBRANCH  25  26
ENDBRANCH  24  25
ENDBRANCH  23  24
ENDBRANCH  11  23
TORSDOF 7
