REMARK  Name = 
REMARK  8 active torsions:
REMARK  status: ('A' for Active; 'I' for Inactive)
REMARK    1  A    between atoms: C_1  and  C_2
REMARK    2  A    between atoms: C_2  and  C_3
REMARK    3  A    between atoms: C_2  and  C_4
REMARK    4  A    between atoms: C_4  and  C_5
REMARK    5  A    between atoms: C_8  and  C_11
REMARK    6  A    between atoms: C_11  and  C_12
REMARK    7  A    between atoms: C_11  and  C_13
REMARK    8  A    between atoms: C_13  and  O_15
REMARK                            x       y       z     vdW  Elec       q    Type
REMARK                         _______ _______ _______ _____ _____    ______ ____
ROOT
ATOM      1  C   UNL     1      -1.469  -0.222  -1.387  0.00  0.00    +0.000 A 
ATOM      2  C   UNL     1      -2.234  -0.542  -2.513  0.00  0.00    +0.000 A 
ATOM      3  C   UNL     1      -2.627   0.455  -3.414  0.00  0.00    +0.000 A 
ATOM      4  C   UNL     1      -2.268   1.794  -3.201  0.00  0.00    +0.000 A 
ATOM      5  C   UNL     1      -1.553   2.117  -2.040  0.00  0.00    +0.000 A 
ATOM      6  C   UNL     1      -1.160   1.122  -1.143  0.00  0.00    +0.000 A 
ENDROOT
BRANCH   4   7
ATOM      7  C   UNL     1      -2.606   2.851  -4.236  0.00  0.00    +0.000 C 
ATOM      8  C   UNL     1      -3.483   3.970  -3.670  0.00  0.00    +0.000 C 
BRANCH   7   9
ATOM      9  C   UNL     1      -1.350   3.447  -4.846  0.00  0.00    +0.000 C 
ATOM     10  O   UNL     1      -0.698   4.388  -4.423  0.00  0.00    +0.000 OA
BRANCH   9  11
ATOM     11  O   UNL     1      -0.951   2.803  -5.967  0.00  0.00    +0.000 OA
ATOM     12  H   UNL     1      -0.117   3.256  -6.214  0.00  0.00    +0.000 HD
ENDBRANCH   9  11
ENDBRANCH   7   9
ENDBRANCH   4   7
BRANCH   1  13
ATOM     13  C   UNL     1      -0.957  -1.294  -0.455  0.00  0.00    +0.000 C 
BRANCH  13  15
ATOM     14  C   UNL     1       1.219  -1.666  -1.750  0.00  0.00    +0.000 C 
ATOM     15  C   UNL     1      -0.008  -2.322  -1.110  0.00  0.00    +0.000 C 
ATOM     16  C   UNL     1       0.444  -3.343  -0.063  0.00  0.00    +0.000 C 
ENDBRANCH  13  15
ENDBRANCH   1  13
TORSDOF 5
