REMARK  Name = 
REMARK  19 active torsions:
REMARK  status: ('A' for Active; 'I' for Inactive)
REMARK    1  A    between atoms: C_2  and  C_3
REMARK    2  A    between atoms: N_5  and  C_6
REMARK    3  A    between atoms: C_8  and  N_9
REMARK    4  A    between atoms: C_13  and  C_14
REMARK    5  A    between atoms: C_14  and  O_16
REMARK    6  A    between atoms: O_16  and  C_17
REMARK    7  A    between atoms: C_17  and  C_18
REMARK    8  A    between atoms: C_17  and  C_19
REMARK    9  A    between atoms: C_20  and  C_21
REMARK   10  A    between atoms: N_23  and  C_24
REMARK   11  A    between atoms: C_32  and  O_33
REMARK   12  A    between atoms: O_33  and  C_34
REMARK   13  A    between atoms: C_36  and  N_37
REMARK   14  A    between atoms: N_37  and  C_38
REMARK   15  A    between atoms: N_37  and  C_39
REMARK   16  A    between atoms: C_39  and  C_40
REMARK   17  A    between atoms: C_40  and  N_41
REMARK   18  A    between atoms: N_41  and  C_42
REMARK   19  A    between atoms: N_41  and  C_43
REMARK                            x       y       z     vdW  Elec       q    Type
REMARK                         _______ _______ _______ _____ _____    ______ ____
ROOT
ATOM      1  N   UNL     1       1.697  -1.809  -2.848  0.00  0.00    +0.000 N 
ATOM      2  C   UNL     1       2.851  -1.883  -2.065  0.00  0.00    +0.000 A 
ATOM      3  N   UNL     1       3.870  -2.516  -2.669  0.00  0.00    +0.000 NA
ATOM      4  C   UNL     1       4.998  -2.695  -1.953  0.00  0.00    +0.000 A 
ATOM      5  C   UNL     1       5.154  -2.269  -0.655  0.00  0.00    +0.000 A 
ATOM      6  C   UNL     1       4.091  -1.542  -0.127  0.00  0.00    +0.000 A 
ATOM      7  N   UNL     1       2.941  -1.355  -0.834  0.00  0.00    +0.000 NA
ATOM      8  H   UNL     1       1.972  -2.110  -3.765  0.00  0.00    +0.000 HD
ENDROOT
BRANCH   6   9
ATOM      9  C   UNL     1       4.031  -1.064   1.265  0.00  0.00    +0.000 A 
ATOM     10  C   UNL     1       5.119  -1.002   2.118  0.00  0.00    +0.000 A 
ATOM     11  N   UNL     1       4.611  -1.265   3.362  0.00  0.00    +0.000 N 
ATOM     12  C   UNL     1       5.330  -1.995   4.380  0.00  0.00    +0.000 C 
ATOM     13  C   UNL     1       3.295  -0.884   3.408  0.00  0.00    +0.000 A 
ATOM     14  C   UNL     1       2.393  -0.793   4.477  0.00  0.00    +0.000 A 
ATOM     15  C   UNL     1       1.124  -0.283   4.211  0.00  0.00    +0.000 A 
ATOM     16  C   UNL     1       0.777   0.117   2.926  0.00  0.00    +0.000 A 
ATOM     17  C   UNL     1       1.655  -0.074   1.851  0.00  0.00    +0.000 A 
ATOM     18  C   UNL     1       2.938  -0.607   2.081  0.00  0.00    +0.000 A 
ENDBRANCH   6   9
BRANCH   1  21
ATOM     19  C   UNL     1      -1.030   0.186  -1.241  0.00  0.00    +0.000 A 
ATOM     20  C   UNL     1       0.016  -0.751  -1.452  0.00  0.00    +0.000 A 
ATOM     21  C   UNL     1       0.539  -1.031  -2.727  0.00  0.00    +0.000 A 
ATOM     22  C   UNL     1      -0.095  -0.422  -3.816  0.00  0.00    +0.000 A 
ATOM     23  C   UNL     1      -1.084   0.556  -3.579  0.00  0.00    +0.000 A 
ATOM     24  C   UNL     1      -1.576   0.920  -2.312  0.00  0.00    +0.000 A 
BRANCH  19  27
ATOM     25  C   UNL     1      -2.082  -0.477   0.930  0.00  0.00    +0.000 C 
ATOM     26  O   UNL     1      -2.520  -0.049   2.002  0.00  0.00    +0.000 OA
ATOM     27  N   UNL     1      -1.472   0.397   0.078  0.00  0.00    +0.000 N 
ATOM     28  H   UNL     1      -1.688   1.338   0.356  0.00  0.00    +0.000 HD
BRANCH  25  30
ATOM     29  C   UNL     1      -2.843  -2.749   1.381  0.00  0.00    +0.000 C 
ATOM     30  C   UNL     1      -2.276  -1.895   0.523  0.00  0.00    +0.000 C 
ENDBRANCH  25  30
ENDBRANCH  19  27
BRANCH  22  31
ATOM     31  O   UNL     1       0.097  -0.571  -5.163  0.00  0.00    +0.000 OA
ATOM     32  C   UNL     1       0.832  -1.647  -5.708  0.00  0.00    +0.000 C 
ENDBRANCH  22  31
BRANCH  24  33
ATOM     33  N   UNL     1      -2.614   1.848  -2.203  0.00  0.00    +0.000 N 
ATOM     34  C   UNL     1      -2.660   2.853  -1.144  0.00  0.00    +0.000 C 
BRANCH  33  35
ATOM     35  C   UNL     1      -3.496   2.140  -3.355  0.00  0.00    +0.000 C 
BRANCH  35  36
ATOM     36  C   UNL     1      -4.295   0.902  -3.830  0.00  0.00    +0.000 C 
BRANCH  36  37
ATOM     37  N   UNL     1      -5.315   1.216  -4.853  0.00  0.00    +0.000 NA
ATOM     38  C   UNL     1      -4.718   1.648  -6.119  0.00  0.00    +0.000 C 
ATOM     39  C   UNL     1      -6.159   0.042  -5.094  0.00  0.00    +0.000 C 
ENDBRANCH  36  37
ENDBRANCH  35  36
ENDBRANCH  33  35
ENDBRANCH  24  33
ENDBRANCH   1  21
BRANCH   5  40
ATOM     40  C   UNL     1       6.281  -2.835   0.106  0.00  0.00    +0.000 C 
ATOM     41  O   UNL     1       6.145  -3.393   1.184  0.00  0.00    +0.000 OA
BRANCH  40  42
ATOM     42  O   UNL     1       7.461  -2.710  -0.565  0.00  0.00    +0.000 OA
BRANCH  42  43
ATOM     43  C   UNL     1       8.612  -3.262   0.126  0.00  0.00    +0.000 C 
ATOM     44  C   UNL     1       8.531  -4.786   0.222  0.00  0.00    +0.000 C 
ATOM     45  C   UNL     1       9.873  -2.863  -0.639  0.00  0.00    +0.000 C 
ENDBRANCH  42  43
ENDBRANCH  40  42
ENDBRANCH   5  40
TORSDOF 12
